python/trip_node_meters.glm
object triplex_meter {
	name trip_node_meter_0;
	phases AS;
	nominal_voltage 120.0;
};
object triplex_meter {
	name trip_node_meter_1;
	phases AS;
	nominal_voltage 120.0;
};
object triplex_meter {
	name trip_node_meter_2;
	phases AS;
	nominal_voltage 120.0;
};
object triplex_meter {
	name trip_node_meter_3;
	phases AS;
	nominal_voltage 120.0;
};
object triplex_meter {
	name trip_node_meter_4;
	phases AS;
	nominal_voltage 120.0;
};
object triplex_meter {
	name trip_node_meter_5;
	phases AS;
	nominal_voltage 120.0;
};
object triplex_meter {
	name trip_node_meter_6;
	phases AS;
	nominal_voltage 120.0;
};
object triplex_meter {
	name trip_node_meter_7;
	phases AS;
	nominal_voltage 120.0;
};
object triplex_meter {
	name trip_node_meter_8;
	phases AS;
	nominal_voltage 120.0;
};
object triplex_meter {
	name trip_node_meter_9;
	phases AS;
	nominal_voltage 120.0;
};
object triplex_meter {
	name trip_node_meter_10;
	phases AS;
	nominal_voltage 120.0;
};
object triplex_meter {
	name trip_node_meter_11;
	phases AS;
	nominal_voltage 120.0;
};
object triplex_meter {
	name trip_node_meter_12;
	phases AS;
	nominal_voltage 120.0;
};
object triplex_meter {
	name trip_node_meter_13;
	phases AS;
	nominal_voltage 120.0;
};
object triplex_meter {
	name trip_node_meter_14;
	phases AS;
	nominal_voltage 120.0;
};
object triplex_meter {
	name trip_node_meter_15;
	phases AS;
	nominal_voltage 120.0;
};
object triplex_meter {
	name trip_node_meter_16;
	phases AS;
	nominal_voltage 120.0;
};
object triplex_meter {
	name trip_node_meter_17;
	phases AS;
	nominal_voltage 120.0;
};
object triplex_meter {
	name trip_node_meter_18;
	phases AS;
	nominal_voltage 120.0;
};
object triplex_meter {
	name trip_node_meter_19;
	phases AS;
	nominal_voltage 120.0;
};
object triplex_meter {
	name trip_node_meter_20;
	phases AS;
	nominal_voltage 120.0;
};
object triplex_meter {
	name trip_node_meter_21;
	phases AS;
	nominal_voltage 120.0;
};
object triplex_meter {
	name trip_node_meter_22;
	phases AS;
	nominal_voltage 120.0;
};
object triplex_meter {
	name trip_node_meter_23;
	phases AS;
	nominal_voltage 120.0;
};
object triplex_meter {
	name trip_node_meter_24;
	phases AS;
	nominal_voltage 120.0;
};
object triplex_meter {
	name trip_node_meter_25;
	phases AS;
	nominal_voltage 120.0;
};
object triplex_meter {
	name trip_node_meter_26;
	phases AS;
	nominal_voltage 120.0;
};
object triplex_meter {
	name trip_node_meter_27;
	phases AS;
	nominal_voltage 120.0;
};
object triplex_meter {
	name trip_node_meter_28;
	phases AS;
	nominal_voltage 120.0;
};
object triplex_meter {
	name trip_node_meter_29;
	phases AS;
	nominal_voltage 120.0;
};
object triplex_meter {
	name trip_node_meter_30;
	phases AS;
	nominal_voltage 120.0;
};
object triplex_meter {
	name trip_node_meter_31;
	phases AS;
	nominal_voltage 120.0;
};
object triplex_meter {
	name trip_node_meter_32;
	phases AS;
	nominal_voltage 120.0;
};
object triplex_meter {
	name trip_node_meter_33;
	phases AS;
	nominal_voltage 120.0;
};
object triplex_meter {
	name trip_node_meter_34;
	phases AS;
	nominal_voltage 120.0;
};
object triplex_meter {
	name trip_node_meter_35;
	phases AS;
	nominal_voltage 120.0;
};
object triplex_meter {
	name trip_node_meter_36;
	phases AS;
	nominal_voltage 120.0;
};
object triplex_meter {
	name trip_node_meter_37;
	phases AS;
	nominal_voltage 120.0;
};
object triplex_meter {
	name trip_node_meter_38;
	phases AS;
	nominal_voltage 120.0;
};
object triplex_meter {
	name trip_node_meter_39;
	phases AS;
	nominal_voltage 120.0;
};
object triplex_meter {
	name trip_node_meter_40;
	phases AS;
	nominal_voltage 120.0;
};
object triplex_meter {
	name trip_node_meter_41;
	phases CS;
	nominal_voltage 120.0;
};
object triplex_meter {
	name trip_node_meter_42;
	phases CS;
	nominal_voltage 120.0;
};
object triplex_meter {
	name trip_node_meter_43;
	phases CS;
	nominal_voltage 120.0;
};
object triplex_meter {
	name trip_node_meter_44;
	phases CS;
	nominal_voltage 120.0;
};
object triplex_meter {
	name trip_node_meter_45;
	phases CS;
	nominal_voltage 120.0;
};
object triplex_meter {
	name trip_node_meter_46;
	phases CS;
	nominal_voltage 120.0;
};
object triplex_meter {
	name trip_node_meter_47;
	phases CS;
	nominal_voltage 120.0;
};
object triplex_meter {
	name trip_node_meter_48;
	phases CS;
	nominal_voltage 120.0;
};
object triplex_meter {
	name trip_node_meter_49;
	phases CS;
	nominal_voltage 120.0;
};
object triplex_meter {
	name trip_node_meter_50;
	phases CS;
	nominal_voltage 120.0;
};
object triplex_meter {
	name trip_node_meter_51;
	phases CS;
	nominal_voltage 120.0;
};
object triplex_meter {
	name trip_node_meter_52;
	phases CS;
	nominal_voltage 120.0;
};
object triplex_meter {
	name trip_node_meter_53;
	phases CS;
	nominal_voltage 120.0;
};
object triplex_meter {
	name trip_node_meter_54;
	phases CS;
	nominal_voltage 120.0;
};
object triplex_meter {
	name trip_node_meter_55;
	phases CS;
	nominal_voltage 120.0;
};
object triplex_meter {
	name trip_node_meter_56;
	phases CS;
	nominal_voltage 120.0;
};
object triplex_meter {
	name trip_node_meter_57;
	phases CS;
	nominal_voltage 120.0;
};
object triplex_meter {
	name trip_node_meter_58;
	phases CS;
	nominal_voltage 120.0;
};
object triplex_meter {
	name trip_node_meter_59;
	phases CS;
	nominal_voltage 120.0;
};
object triplex_meter {
	name trip_node_meter_60;
	phases CS;
	nominal_voltage 120.0;
};
object triplex_meter {
	name trip_node_meter_61;
	phases CS;
	nominal_voltage 120.0;
};
object triplex_meter {
	name trip_node_meter_62;
	phases CS;
	nominal_voltage 120.0;
};
object triplex_meter {
	name trip_node_meter_63;
	phases CS;
	nominal_voltage 120.0;
};
object triplex_meter {
	name trip_node_meter_64;
	phases CS;
	nominal_voltage 120.0;
};
object triplex_meter {
	name trip_node_meter_65;
	phases CS;
	nominal_voltage 120.0;
};
object triplex_meter {
	name trip_node_meter_66;
	phases CS;
	nominal_voltage 120.0;
};
object triplex_meter {
	name trip_node_meter_67;
	phases CS;
	nominal_voltage 120.0;
};
object triplex_meter {
	name trip_node_meter_68;
	phases CS;
	nominal_voltage 120.0;
};
object triplex_meter {
	name trip_node_meter_69;
	phases CS;
	nominal_voltage 120.0;
};
object triplex_meter {
	name trip_node_meter_70;
	phases CS;
	nominal_voltage 120.0;
};
object triplex_meter {
	name trip_node_meter_71;
	phases CS;
	nominal_voltage 120.0;
};
object triplex_meter {
	name trip_node_meter_72;
	phases CS;
	nominal_voltage 120.0;
};
object triplex_meter {
	name trip_node_meter_73;
	phases CS;
	nominal_voltage 120.0;
};
object triplex_meter {
	name trip_node_meter_74;
	phases CS;
	nominal_voltage 120.0;
};
object triplex_meter {
	name trip_node_meter_75;
	phases CS;
	nominal_voltage 120.0;
};
object triplex_meter {
	name trip_node_meter_76;
	phases CS;
	nominal_voltage 120.0;
};
object triplex_meter {
	name trip_node_meter_77;
	phases CS;
	nominal_voltage 120.0;
};
object triplex_meter {
	name trip_node_meter_78;
	phases CS;
	nominal_voltage 120.0;
};
object triplex_meter {
	name trip_node_meter_79;
	phases CS;
	nominal_voltage 120.0;
};
object triplex_meter {
	name trip_node_meter_80;
	phases CS;
	nominal_voltage 120.0;
};
object triplex_meter {
	name trip_node_meter_81;
	phases CS;
	nominal_voltage 120.0;
};
object triplex_meter {
	name trip_node_meter_82;
	phases CS;
	nominal_voltage 120.0;
};
object triplex_meter {
	name trip_node_meter_83;
	phases CS;
	nominal_voltage 120.0;
};
object triplex_meter {
	name trip_node_meter_84;
	phases CS;
	nominal_voltage 120.0;
};
object triplex_meter {
	name trip_node_meter_85;
	phases CS;
	nominal_voltage 120.0;
};
object triplex_meter {
	name trip_node_meter_86;
	phases CS;
	nominal_voltage 120.0;
};
object triplex_meter {
	name trip_node_meter_87;
	phases CS;
	nominal_voltage 120.0;
};
object triplex_meter {
	name trip_node_meter_88;
	phases CS;
	nominal_voltage 120.0;
};
object triplex_meter {
	name trip_node_meter_89;
	phases CS;
	nominal_voltage 120.0;
};
object triplex_meter {
	name trip_node_meter_90;
	phases CS;
	nominal_voltage 120.0;
};
object triplex_meter {
	name trip_node_meter_91;
	phases CS;
	nominal_voltage 120.0;
};
object triplex_meter {
	name trip_node_meter_92;
	phases CS;
	nominal_voltage 120.0;
};
object triplex_meter {
	name trip_node_meter_93;
	phases CS;
	nominal_voltage 120.0;
};
object triplex_meter {
	name trip_node_meter_94;
	phases CS;
	nominal_voltage 120.0;
};
object triplex_meter {
	name trip_node_meter_95;
	phases CS;
	nominal_voltage 120.0;
};
object triplex_meter {
	name trip_node_meter_96;
	phases CS;
	nominal_voltage 120.0;
};
object triplex_meter {
	name trip_node_meter_97;
	phases CS;
	nominal_voltage 120.0;
};
object triplex_meter {
	name trip_node_meter_98;
	phases CS;
	nominal_voltage 120.0;
};
object triplex_meter {
	name trip_node_meter_99;
	phases CS;
	nominal_voltage 120.0;
};
object triplex_meter {
	name trip_node_meter_100;
	phases CS;
	nominal_voltage 120.0;
};
object triplex_meter {
	name trip_node_meter_101;
	phases CS;
	nominal_voltage 120.0;
};
object triplex_meter {
	name trip_node_meter_102;
	phases CS;
	nominal_voltage 120.0;
};
object triplex_meter {
	name trip_node_meter_103;
	phases CS;
	nominal_voltage 120.0;
};
object triplex_meter {
	name trip_node_meter_104;
	phases CS;
	nominal_voltage 120.0;
};
object triplex_meter {
	name trip_node_meter_105;
	phases CS;
	nominal_voltage 120.0;
};
object triplex_meter {
	name trip_node_meter_106;
	phases CS;
	nominal_voltage 120.0;
};
object triplex_meter {
	name trip_node_meter_107;
	phases CS;
	nominal_voltage 120.0;
};
object triplex_meter {
	name trip_node_meter_108;
	phases CS;
	nominal_voltage 120.0;
};
object triplex_meter {
	name trip_node_meter_109;
	phases CS;
	nominal_voltage 120.0;
};
object triplex_meter {
	name trip_node_meter_110;
	phases CS;
	nominal_voltage 120.0;
};
object triplex_meter {
	name trip_node_meter_111;
	phases CS;
	nominal_voltage 120.0;
};
object triplex_meter {
	name trip_node_meter_112;
	phases CS;
	nominal_voltage 120.0;
};
object triplex_meter {
	name trip_node_meter_113;
	phases CS;
	nominal_voltage 120.0;
};
object triplex_meter {
	name trip_node_meter_114;
	phases CS;
	nominal_voltage 120.0;
};
object triplex_meter {
	name trip_node_meter_115;
	phases CS;
	nominal_voltage 120.0;
};
object triplex_meter {
	name trip_node_meter_116;
	phases CS;
	nominal_voltage 120.0;
};
object triplex_meter {
	name trip_node_meter_117;
	phases CS;
	nominal_voltage 120.0;
};
object triplex_meter {
	name trip_node_meter_118;
	phases CS;
	nominal_voltage 120.0;
};
object triplex_meter {
	name trip_node_meter_119;
	phases CS;
	nominal_voltage 120.0;
};
object triplex_meter {
	name trip_node_meter_120;
	phases CS;
	nominal_voltage 120.0;
};
object triplex_meter {
	name trip_node_meter_121;
	phases AS;
	nominal_voltage 120.0;
};
object triplex_meter {
	name trip_node_meter_122;
	phases AS;
	nominal_voltage 120.0;
};
object triplex_meter {
	name trip_node_meter_123;
	phases AS;
	nominal_voltage 120.0;
};
object triplex_meter {
	name trip_node_meter_124;
	phases AS;
	nominal_voltage 120.0;
};
object triplex_meter {
	name trip_node_meter_125;
	phases AS;
	nominal_voltage 120.0;
};
object triplex_meter {
	name trip_node_meter_126;
	phases AS;
	nominal_voltage 120.0;
};
object triplex_meter {
	name trip_node_meter_127;
	phases AS;
	nominal_voltage 120.0;
};
object triplex_meter {
	name trip_node_meter_128;
	phases AS;
	nominal_voltage 120.0;
};
object triplex_meter {
	name trip_node_meter_129;
	phases AS;
	nominal_voltage 120.0;
};
object triplex_meter {
	name trip_node_meter_130;
	phases AS;
	nominal_voltage 120.0;
};
object triplex_meter {
	name trip_node_meter_131;
	phases AS;
	nominal_voltage 120.0;
};
object triplex_meter {
	name trip_node_meter_132;
	phases AS;
	nominal_voltage 120.0;
};
object triplex_meter {
	name trip_node_meter_133;
	phases AS;
	nominal_voltage 120.0;
};
object triplex_meter {
	name trip_node_meter_134;
	phases AS;
	nominal_voltage 120.0;
};
object triplex_meter {
	name trip_node_meter_135;
	phases AS;
	nominal_voltage 120.0;
};
object triplex_meter {
	name trip_node_meter_136;
	phases AS;
	nominal_voltage 120.0;
};
object triplex_meter {
	name trip_node_meter_137;
	phases AS;
	nominal_voltage 120.0;
};
object triplex_meter {
	name trip_node_meter_138;
	phases AS;
	nominal_voltage 120.0;
};
object triplex_meter {
	name trip_node_meter_139;
	phases AS;
	nominal_voltage 120.0;
};
object triplex_meter {
	name trip_node_meter_140;
	phases AS;
	nominal_voltage 120.0;
};
object triplex_meter {
	name trip_node_meter_141;
	phases AS;
	nominal_voltage 120.0;
};
object triplex_meter {
	name trip_node_meter_142;
	phases AS;
	nominal_voltage 120.0;
};
object triplex_meter {
	name trip_node_meter_143;
	phases AS;
	nominal_voltage 120.0;
};
object triplex_meter {
	name trip_node_meter_144;
	phases AS;
	nominal_voltage 120.0;
};
object triplex_meter {
	name trip_node_meter_145;
	phases AS;
	nominal_voltage 120.0;
};
object triplex_meter {
	name trip_node_meter_146;
	phases AS;
	nominal_voltage 120.0;
};
object triplex_meter {
	name trip_node_meter_147;
	phases AS;
	nominal_voltage 120.0;
};
object triplex_meter {
	name trip_node_meter_148;
	phases AS;
	nominal_voltage 120.0;
};
object triplex_meter {
	name trip_node_meter_149;
	phases AS;
	nominal_voltage 120.0;
};
object triplex_meter {
	name trip_node_meter_150;
	phases AS;
	nominal_voltage 120.0;
};
object triplex_meter {
	name trip_node_meter_151;
	phases AS;
	nominal_voltage 120.0;
};
object triplex_meter {
	name trip_node_meter_152;
	phases AS;
	nominal_voltage 120.0;
};
object triplex_meter {
	name trip_node_meter_153;
	phases AS;
	nominal_voltage 120.0;
};
object triplex_meter {
	name trip_node_meter_154;
	phases AS;
	nominal_voltage 120.0;
};
object triplex_meter {
	name trip_node_meter_155;
	phases AS;
	nominal_voltage 120.0;
};
object triplex_meter {
	name trip_node_meter_156;
	phases AS;
	nominal_voltage 120.0;
};
object triplex_meter {
	name trip_node_meter_157;
	phases AS;
	nominal_voltage 120.0;
};
object triplex_meter {
	name trip_node_meter_158;
	phases AS;
	nominal_voltage 120.0;
};
object triplex_meter {
	name trip_node_meter_159;
	phases AS;
	nominal_voltage 120.0;
};
object triplex_meter {
	name trip_node_meter_160;
	phases AS;
	nominal_voltage 120.0;
};
object triplex_meter {
	name trip_node_meter_161;
	phases BS;
	nominal_voltage 120.0;
};
object triplex_meter {
	name trip_node_meter_162;
	phases BS;
	nominal_voltage 120.0;
};
object triplex_meter {
	name trip_node_meter_163;
	phases BS;
	nominal_voltage 120.0;
};
object triplex_meter {
	name trip_node_meter_164;
	phases BS;
	nominal_voltage 120.0;
};
object triplex_meter {
	name trip_node_meter_165;
	phases BS;
	nominal_voltage 120.0;
};
object triplex_meter {
	name trip_node_meter_166;
	phases BS;
	nominal_voltage 120.0;
};
object triplex_meter {
	name trip_node_meter_167;
	phases BS;
	nominal_voltage 120.0;
};
object triplex_meter {
	name trip_node_meter_168;
	phases BS;
	nominal_voltage 120.0;
};
object triplex_meter {
	name trip_node_meter_169;
	phases BS;
	nominal_voltage 120.0;
};
object triplex_meter {
	name trip_node_meter_170;
	phases BS;
	nominal_voltage 120.0;
};
object triplex_meter {
	name trip_node_meter_171;
	phases BS;
	nominal_voltage 120.0;
};
object triplex_meter {
	name trip_node_meter_172;
	phases BS;
	nominal_voltage 120.0;
};
object triplex_meter {
	name trip_node_meter_173;
	phases BS;
	nominal_voltage 120.0;
};
object triplex_meter {
	name trip_node_meter_174;
	phases BS;
	nominal_voltage 120.0;
};
object triplex_meter {
	name trip_node_meter_175;
	phases BS;
	nominal_voltage 120.0;
};
object triplex_meter {
	name trip_node_meter_176;
	phases BS;
	nominal_voltage 120.0;
};
object triplex_meter {
	name trip_node_meter_177;
	phases BS;
	nominal_voltage 120.0;
};
object triplex_meter {
	name trip_node_meter_178;
	phases BS;
	nominal_voltage 120.0;
};
object triplex_meter {
	name trip_node_meter_179;
	phases BS;
	nominal_voltage 120.0;
};
object triplex_meter {
	name trip_node_meter_180;
	phases BS;
	nominal_voltage 120.0;
};
object triplex_meter {
	name trip_node_meter_181;
	phases BS;
	nominal_voltage 120.0;
};
object triplex_meter {
	name trip_node_meter_182;
	phases BS;
	nominal_voltage 120.0;
};
object triplex_meter {
	name trip_node_meter_183;
	phases BS;
	nominal_voltage 120.0;
};
object triplex_meter {
	name trip_node_meter_184;
	phases BS;
	nominal_voltage 120.0;
};
object triplex_meter {
	name trip_node_meter_185;
	phases BS;
	nominal_voltage 120.0;
};
object triplex_meter {
	name trip_node_meter_186;
	phases BS;
	nominal_voltage 120.0;
};
object triplex_meter {
	name trip_node_meter_187;
	phases BS;
	nominal_voltage 120.0;
};
object triplex_meter {
	name trip_node_meter_188;
	phases BS;
	nominal_voltage 120.0;
};
object triplex_meter {
	name trip_node_meter_189;
	phases BS;
	nominal_voltage 120.0;
};
object triplex_meter {
	name trip_node_meter_190;
	phases BS;
	nominal_voltage 120.0;
};
object triplex_meter {
	name trip_node_meter_191;
	phases BS;
	nominal_voltage 120.0;
};
object triplex_meter {
	name trip_node_meter_192;
	phases BS;
	nominal_voltage 120.0;
};
object triplex_meter {
	name trip_node_meter_193;
	phases BS;
	nominal_voltage 120.0;
};
object triplex_meter {
	name trip_node_meter_194;
	phases BS;
	nominal_voltage 120.0;
};
object triplex_meter {
	name trip_node_meter_195;
	phases BS;
	nominal_voltage 120.0;
};
object triplex_meter {
	name trip_node_meter_196;
	phases BS;
	nominal_voltage 120.0;
};
object triplex_meter {
	name trip_node_meter_197;
	phases BS;
	nominal_voltage 120.0;
};
object triplex_meter {
	name trip_node_meter_198;
	phases BS;
	nominal_voltage 120.0;
};
object triplex_meter {
	name trip_node_meter_199;
	phases BS;
	nominal_voltage 120.0;
};
object triplex_meter {
	name trip_node_meter_200;
	phases BS;
	nominal_voltage 120.0;
};
object triplex_meter {
	name trip_node_meter_201;
	phases CS;
	nominal_voltage 120.0;
};
object triplex_meter {
	name trip_node_meter_202;
	phases CS;
	nominal_voltage 120.0;
};
object triplex_meter {
	name trip_node_meter_203;
	phases CS;
	nominal_voltage 120.0;
};
object triplex_meter {
	name trip_node_meter_204;
	phases CS;
	nominal_voltage 120.0;
};
object triplex_meter {
	name trip_node_meter_205;
	phases CS;
	nominal_voltage 120.0;
};
object triplex_meter {
	name trip_node_meter_206;
	phases CS;
	nominal_voltage 120.0;
};
object triplex_meter {
	name trip_node_meter_207;
	phases CS;
	nominal_voltage 120.0;
};
object triplex_meter {
	name trip_node_meter_208;
	phases CS;
	nominal_voltage 120.0;
};
object triplex_meter {
	name trip_node_meter_209;
	phases CS;
	nominal_voltage 120.0;
};
object triplex_meter {
	name trip_node_meter_210;
	phases CS;
	nominal_voltage 120.0;
};
object triplex_meter {
	name trip_node_meter_211;
	phases CS;
	nominal_voltage 120.0;
};
object triplex_meter {
	name trip_node_meter_212;
	phases CS;
	nominal_voltage 120.0;
};
object triplex_meter {
	name trip_node_meter_213;
	phases CS;
	nominal_voltage 120.0;
};
object triplex_meter {
	name trip_node_meter_214;
	phases CS;
	nominal_voltage 120.0;
};
object triplex_meter {
	name trip_node_meter_215;
	phases CS;
	nominal_voltage 120.0;
};
object triplex_meter {
	name trip_node_meter_216;
	phases CS;
	nominal_voltage 120.0;
};
object triplex_meter {
	name trip_node_meter_217;
	phases CS;
	nominal_voltage 120.0;
};
object triplex_meter {
	name trip_node_meter_218;
	phases CS;
	nominal_voltage 120.0;
};
object triplex_meter {
	name trip_node_meter_219;
	phases CS;
	nominal_voltage 120.0;
};
object triplex_meter {
	name trip_node_meter_220;
	phases CS;
	nominal_voltage 120.0;
};
object triplex_meter {
	name trip_node_meter_221;
	phases CS;
	nominal_voltage 120.0;
};
object triplex_meter {
	name trip_node_meter_222;
	phases CS;
	nominal_voltage 120.0;
};
object triplex_meter {
	name trip_node_meter_223;
	phases CS;
	nominal_voltage 120.0;
};
object triplex_meter {
	name trip_node_meter_224;
	phases CS;
	nominal_voltage 120.0;
};
object triplex_meter {
	name trip_node_meter_225;
	phases CS;
	nominal_voltage 120.0;
};
object triplex_meter {
	name trip_node_meter_226;
	phases CS;
	nominal_voltage 120.0;
};
object triplex_meter {
	name trip_node_meter_227;
	phases CS;
	nominal_voltage 120.0;
};
object triplex_meter {
	name trip_node_meter_228;
	phases CS;
	nominal_voltage 120.0;
};
object triplex_meter {
	name trip_node_meter_229;
	phases CS;
	nominal_voltage 120.0;
};
object triplex_meter {
	name trip_node_meter_230;
	phases CS;
	nominal_voltage 120.0;
};
object triplex_meter {
	name trip_node_meter_231;
	phases CS;
	nominal_voltage 120.0;
};
object triplex_meter {
	name trip_node_meter_232;
	phases CS;
	nominal_voltage 120.0;
};
object triplex_meter {
	name trip_node_meter_233;
	phases CS;
	nominal_voltage 120.0;
};
object triplex_meter {
	name trip_node_meter_234;
	phases CS;
	nominal_voltage 120.0;
};
object triplex_meter {
	name trip_node_meter_235;
	phases CS;
	nominal_voltage 120.0;
};
object triplex_meter {
	name trip_node_meter_236;
	phases CS;
	nominal_voltage 120.0;
};
object triplex_meter {
	name trip_node_meter_237;
	phases CS;
	nominal_voltage 120.0;
};
object triplex_meter {
	name trip_node_meter_238;
	phases CS;
	nominal_voltage 120.0;
};
object triplex_meter {
	name trip_node_meter_239;
	phases CS;
	nominal_voltage 120.0;
};
object triplex_meter {
	name trip_node_meter_240;
	phases CS;
	nominal_voltage 120.0;
};
object triplex_meter {
	name trip_node_meter_241;
	phases AS;
	nominal_voltage 120.0;
};
object triplex_meter {
	name trip_node_meter_242;
	phases AS;
	nominal_voltage 120.0;
};
object triplex_meter {
	name trip_node_meter_243;
	phases AS;
	nominal_voltage 120.0;
};
object triplex_meter {
	name trip_node_meter_244;
	phases AS;
	nominal_voltage 120.0;
};
object triplex_meter {
	name trip_node_meter_245;
	phases AS;
	nominal_voltage 120.0;
};
object triplex_meter {
	name trip_node_meter_246;
	phases AS;
	nominal_voltage 120.0;
};
object triplex_meter {
	name trip_node_meter_247;
	phases AS;
	nominal_voltage 120.0;
};
object triplex_meter {
	name trip_node_meter_248;
	phases AS;
	nominal_voltage 120.0;
};
object triplex_meter {
	name trip_node_meter_249;
	phases AS;
	nominal_voltage 120.0;
};
object triplex_meter {
	name trip_node_meter_250;
	phases AS;
	nominal_voltage 120.0;
};
object triplex_meter {
	name trip_node_meter_251;
	phases AS;
	nominal_voltage 120.0;
};
object triplex_meter {
	name trip_node_meter_252;
	phases AS;
	nominal_voltage 120.0;
};
object triplex_meter {
	name trip_node_meter_253;
	phases AS;
	nominal_voltage 120.0;
};
object triplex_meter {
	name trip_node_meter_254;
	phases AS;
	nominal_voltage 120.0;
};
object triplex_meter {
	name trip_node_meter_255;
	phases AS;
	nominal_voltage 120.0;
};
object triplex_meter {
	name trip_node_meter_256;
	phases AS;
	nominal_voltage 120.0;
};
object triplex_meter {
	name trip_node_meter_257;
	phases AS;
	nominal_voltage 120.0;
};
object triplex_meter {
	name trip_node_meter_258;
	phases AS;
	nominal_voltage 120.0;
};
object triplex_meter {
	name trip_node_meter_259;
	phases AS;
	nominal_voltage 120.0;
};
object triplex_meter {
	name trip_node_meter_260;
	phases AS;
	nominal_voltage 120.0;
};
object triplex_meter {
	name trip_node_meter_261;
	phases AS;
	nominal_voltage 120.0;
};
object triplex_meter {
	name trip_node_meter_262;
	phases AS;
	nominal_voltage 120.0;
};
object triplex_meter {
	name trip_node_meter_263;
	phases AS;
	nominal_voltage 120.0;
};
object triplex_meter {
	name trip_node_meter_264;
	phases AS;
	nominal_voltage 120.0;
};
object triplex_meter {
	name trip_node_meter_265;
	phases AS;
	nominal_voltage 120.0;
};
object triplex_meter {
	name trip_node_meter_266;
	phases AS;
	nominal_voltage 120.0;
};
object triplex_meter {
	name trip_node_meter_267;
	phases AS;
	nominal_voltage 120.0;
};
object triplex_meter {
	name trip_node_meter_268;
	phases AS;
	nominal_voltage 120.0;
};
object triplex_meter {
	name trip_node_meter_269;
	phases AS;
	nominal_voltage 120.0;
};
object triplex_meter {
	name trip_node_meter_270;
	phases AS;
	nominal_voltage 120.0;
};
object triplex_meter {
	name trip_node_meter_271;
	phases AS;
	nominal_voltage 120.0;
};
object triplex_meter {
	name trip_node_meter_272;
	phases AS;
	nominal_voltage 120.0;
};
object triplex_meter {
	name trip_node_meter_273;
	phases AS;
	nominal_voltage 120.0;
};
object triplex_meter {
	name trip_node_meter_274;
	phases AS;
	nominal_voltage 120.0;
};
object triplex_meter {
	name trip_node_meter_275;
	phases AS;
	nominal_voltage 120.0;
};
object triplex_meter {
	name trip_node_meter_276;
	phases AS;
	nominal_voltage 120.0;
};
object triplex_meter {
	name trip_node_meter_277;
	phases AS;
	nominal_voltage 120.0;
};
object triplex_meter {
	name trip_node_meter_278;
	phases AS;
	nominal_voltage 120.0;
};
object triplex_meter {
	name trip_node_meter_279;
	phases AS;
	nominal_voltage 120.0;
};
object triplex_meter {
	name trip_node_meter_280;
	phases AS;
	nominal_voltage 120.0;
};
object triplex_meter {
	name trip_node_meter_281;
	phases BS;
	nominal_voltage 120.0;
};
object triplex_meter {
	name trip_node_meter_282;
	phases BS;
	nominal_voltage 120.0;
};
object triplex_meter {
	name trip_node_meter_283;
	phases BS;
	nominal_voltage 120.0;
};
object triplex_meter {
	name trip_node_meter_284;
	phases BS;
	nominal_voltage 120.0;
};
object triplex_meter {
	name trip_node_meter_285;
	phases BS;
	nominal_voltage 120.0;
};
object triplex_meter {
	name trip_node_meter_286;
	phases BS;
	nominal_voltage 120.0;
};
object triplex_meter {
	name trip_node_meter_287;
	phases BS;
	nominal_voltage 120.0;
};
object triplex_meter {
	name trip_node_meter_288;
	phases BS;
	nominal_voltage 120.0;
};
object triplex_meter {
	name trip_node_meter_289;
	phases BS;
	nominal_voltage 120.0;
};
object triplex_meter {
	name trip_node_meter_290;
	phases BS;
	nominal_voltage 120.0;
};
object triplex_meter {
	name trip_node_meter_291;
	phases BS;
	nominal_voltage 120.0;
};
object triplex_meter {
	name trip_node_meter_292;
	phases BS;
	nominal_voltage 120.0;
};
object triplex_meter {
	name trip_node_meter_293;
	phases BS;
	nominal_voltage 120.0;
};
object triplex_meter {
	name trip_node_meter_294;
	phases BS;
	nominal_voltage 120.0;
};
object triplex_meter {
	name trip_node_meter_295;
	phases BS;
	nominal_voltage 120.0;
};
object triplex_meter {
	name trip_node_meter_296;
	phases BS;
	nominal_voltage 120.0;
};
object triplex_meter {
	name trip_node_meter_297;
	phases BS;
	nominal_voltage 120.0;
};
object triplex_meter {
	name trip_node_meter_298;
	phases BS;
	nominal_voltage 120.0;
};
object triplex_meter {
	name trip_node_meter_299;
	phases BS;
	nominal_voltage 120.0;
};
object triplex_meter {
	name trip_node_meter_300;
	phases BS;
	nominal_voltage 120.0;
};
object triplex_meter {
	name trip_node_meter_301;
	phases BS;
	nominal_voltage 120.0;
};
object triplex_meter {
	name trip_node_meter_302;
	phases BS;
	nominal_voltage 120.0;
};
object triplex_meter {
	name trip_node_meter_303;
	phases BS;
	nominal_voltage 120.0;
};
object triplex_meter {
	name trip_node_meter_304;
	phases BS;
	nominal_voltage 120.0;
};
object triplex_meter {
	name trip_node_meter_305;
	phases BS;
	nominal_voltage 120.0;
};
object triplex_meter {
	name trip_node_meter_306;
	phases BS;
	nominal_voltage 120.0;
};
object triplex_meter {
	name trip_node_meter_307;
	phases BS;
	nominal_voltage 120.0;
};
object triplex_meter {
	name trip_node_meter_308;
	phases BS;
	nominal_voltage 120.0;
};
object triplex_meter {
	name trip_node_meter_309;
	phases BS;
	nominal_voltage 120.0;
};
object triplex_meter {
	name trip_node_meter_310;
	phases BS;
	nominal_voltage 120.0;
};
object triplex_meter {
	name trip_node_meter_311;
	phases BS;
	nominal_voltage 120.0;
};
object triplex_meter {
	name trip_node_meter_312;
	phases BS;
	nominal_voltage 120.0;
};
object triplex_meter {
	name trip_node_meter_313;
	phases BS;
	nominal_voltage 120.0;
};
object triplex_meter {
	name trip_node_meter_314;
	phases BS;
	nominal_voltage 120.0;
};
object triplex_meter {
	name trip_node_meter_315;
	phases BS;
	nominal_voltage 120.0;
};
object triplex_meter {
	name trip_node_meter_316;
	phases BS;
	nominal_voltage 120.0;
};
object triplex_meter {
	name trip_node_meter_317;
	phases BS;
	nominal_voltage 120.0;
};
object triplex_meter {
	name trip_node_meter_318;
	phases BS;
	nominal_voltage 120.0;
};
object triplex_meter {
	name trip_node_meter_319;
	phases BS;
	nominal_voltage 120.0;
};
object triplex_meter {
	name trip_node_meter_320;
	phases BS;
	nominal_voltage 120.0;
};
object triplex_meter {
	name trip_node_meter_321;
	phases CS;
	nominal_voltage 120.0;
};
object triplex_meter {
	name trip_node_meter_322;
	phases CS;
	nominal_voltage 120.0;
};
object triplex_meter {
	name trip_node_meter_323;
	phases CS;
	nominal_voltage 120.0;
};
object triplex_meter {
	name trip_node_meter_324;
	phases CS;
	nominal_voltage 120.0;
};
object triplex_meter {
	name trip_node_meter_325;
	phases CS;
	nominal_voltage 120.0;
};
object triplex_meter {
	name trip_node_meter_326;
	phases CS;
	nominal_voltage 120.0;
};
object triplex_meter {
	name trip_node_meter_327;
	phases CS;
	nominal_voltage 120.0;
};
object triplex_meter {
	name trip_node_meter_328;
	phases CS;
	nominal_voltage 120.0;
};
object triplex_meter {
	name trip_node_meter_329;
	phases CS;
	nominal_voltage 120.0;
};
object triplex_meter {
	name trip_node_meter_330;
	phases CS;
	nominal_voltage 120.0;
};
object triplex_meter {
	name trip_node_meter_331;
	phases CS;
	nominal_voltage 120.0;
};
object triplex_meter {
	name trip_node_meter_332;
	phases CS;
	nominal_voltage 120.0;
};
object triplex_meter {
	name trip_node_meter_333;
	phases CS;
	nominal_voltage 120.0;
};
object triplex_meter {
	name trip_node_meter_334;
	phases CS;
	nominal_voltage 120.0;
};
object triplex_meter {
	name trip_node_meter_335;
	phases CS;
	nominal_voltage 120.0;
};
object triplex_meter {
	name trip_node_meter_336;
	phases CS;
	nominal_voltage 120.0;
};
object triplex_meter {
	name trip_node_meter_337;
	phases CS;
	nominal_voltage 120.0;
};
object triplex_meter {
	name trip_node_meter_338;
	phases CS;
	nominal_voltage 120.0;
};
object triplex_meter {
	name trip_node_meter_339;
	phases CS;
	nominal_voltage 120.0;
};
object triplex_meter {
	name trip_node_meter_340;
	phases CS;
	nominal_voltage 120.0;
};
object triplex_meter {
	name trip_node_meter_341;
	phases CS;
	nominal_voltage 120.0;
};
object triplex_meter {
	name trip_node_meter_342;
	phases CS;
	nominal_voltage 120.0;
};
object triplex_meter {
	name trip_node_meter_343;
	phases CS;
	nominal_voltage 120.0;
};
object triplex_meter {
	name trip_node_meter_344;
	phases CS;
	nominal_voltage 120.0;
};
object triplex_meter {
	name trip_node_meter_345;
	phases CS;
	nominal_voltage 120.0;
};
object triplex_meter {
	name trip_node_meter_346;
	phases CS;
	nominal_voltage 120.0;
};
object triplex_meter {
	name trip_node_meter_347;
	phases CS;
	nominal_voltage 120.0;
};
object triplex_meter {
	name trip_node_meter_348;
	phases CS;
	nominal_voltage 120.0;
};
object triplex_meter {
	name trip_node_meter_349;
	phases CS;
	nominal_voltage 120.0;
};
object triplex_meter {
	name trip_node_meter_350;
	phases CS;
	nominal_voltage 120.0;
};
object triplex_meter {
	name trip_node_meter_351;
	phases CS;
	nominal_voltage 120.0;
};
object triplex_meter {
	name trip_node_meter_352;
	phases CS;
	nominal_voltage 120.0;
};
object triplex_meter {
	name trip_node_meter_353;
	phases CS;
	nominal_voltage 120.0;
};
object triplex_meter {
	name trip_node_meter_354;
	phases CS;
	nominal_voltage 120.0;
};
object triplex_meter {
	name trip_node_meter_355;
	phases CS;
	nominal_voltage 120.0;
};
object triplex_meter {
	name trip_node_meter_356;
	phases CS;
	nominal_voltage 120.0;
};
object triplex_meter {
	name trip_node_meter_357;
	phases CS;
	nominal_voltage 120.0;
};
object triplex_meter {
	name trip_node_meter_358;
	phases CS;
	nominal_voltage 120.0;
};
object triplex_meter {
	name trip_node_meter_359;
	phases CS;
	nominal_voltage 120.0;
};
object triplex_meter {
	name trip_node_meter_360;
	phases CS;
	nominal_voltage 120.0;
};
object triplex_meter {
	name trip_node_meter_361;
	phases AS;
	nominal_voltage 120.0;
};
object triplex_meter {
	name trip_node_meter_362;
	phases AS;
	nominal_voltage 120.0;
};
object triplex_meter {
	name trip_node_meter_363;
	phases AS;
	nominal_voltage 120.0;
};
object triplex_meter {
	name trip_node_meter_364;
	phases AS;
	nominal_voltage 120.0;
};
object triplex_meter {
	name trip_node_meter_365;
	phases AS;
	nominal_voltage 120.0;
};
object triplex_meter {
	name trip_node_meter_366;
	phases AS;
	nominal_voltage 120.0;
};
object triplex_meter {
	name trip_node_meter_367;
	phases AS;
	nominal_voltage 120.0;
};
object triplex_meter {
	name trip_node_meter_368;
	phases AS;
	nominal_voltage 120.0;
};
object triplex_meter {
	name trip_node_meter_369;
	phases AS;
	nominal_voltage 120.0;
};
object triplex_meter {
	name trip_node_meter_370;
	phases AS;
	nominal_voltage 120.0;
};
object triplex_meter {
	name trip_node_meter_371;
	phases AS;
	nominal_voltage 120.0;
};
object triplex_meter {
	name trip_node_meter_372;
	phases AS;
	nominal_voltage 120.0;
};
object triplex_meter {
	name trip_node_meter_373;
	phases AS;
	nominal_voltage 120.0;
};
object triplex_meter {
	name trip_node_meter_374;
	phases AS;
	nominal_voltage 120.0;
};
object triplex_meter {
	name trip_node_meter_375;
	phases AS;
	nominal_voltage 120.0;
};
object triplex_meter {
	name trip_node_meter_376;
	phases AS;
	nominal_voltage 120.0;
};
object triplex_meter {
	name trip_node_meter_377;
	phases AS;
	nominal_voltage 120.0;
};
object triplex_meter {
	name trip_node_meter_378;
	phases AS;
	nominal_voltage 120.0;
};
object triplex_meter {
	name trip_node_meter_379;
	phases AS;
	nominal_voltage 120.0;
};
object triplex_meter {
	name trip_node_meter_380;
	phases AS;
	nominal_voltage 120.0;
};
object triplex_meter {
	name trip_node_meter_381;
	phases AS;
	nominal_voltage 120.0;
};
object triplex_meter {
	name trip_node_meter_382;
	phases AS;
	nominal_voltage 120.0;
};
object triplex_meter {
	name trip_node_meter_383;
	phases AS;
	nominal_voltage 120.0;
};
object triplex_meter {
	name trip_node_meter_384;
	phases AS;
	nominal_voltage 120.0;
};
object triplex_meter {
	name trip_node_meter_385;
	phases AS;
	nominal_voltage 120.0;
};
object triplex_meter {
	name trip_node_meter_386;
	phases AS;
	nominal_voltage 120.0;
};
object triplex_meter {
	name trip_node_meter_387;
	phases AS;
	nominal_voltage 120.0;
};
object triplex_meter {
	name trip_node_meter_388;
	phases AS;
	nominal_voltage 120.0;
};
object triplex_meter {
	name trip_node_meter_389;
	phases AS;
	nominal_voltage 120.0;
};
object triplex_meter {
	name trip_node_meter_390;
	phases AS;
	nominal_voltage 120.0;
};
object triplex_meter {
	name trip_node_meter_391;
	phases AS;
	nominal_voltage 120.0;
};
object triplex_meter {
	name trip_node_meter_392;
	phases AS;
	nominal_voltage 120.0;
};
object triplex_meter {
	name trip_node_meter_393;
	phases AS;
	nominal_voltage 120.0;
};
object triplex_meter {
	name trip_node_meter_394;
	phases AS;
	nominal_voltage 120.0;
};
object triplex_meter {
	name trip_node_meter_395;
	phases AS;
	nominal_voltage 120.0;
};
object triplex_meter {
	name trip_node_meter_396;
	phases AS;
	nominal_voltage 120.0;
};
object triplex_meter {
	name trip_node_meter_397;
	phases AS;
	nominal_voltage 120.0;
};
object triplex_meter {
	name trip_node_meter_398;
	phases AS;
	nominal_voltage 120.0;
};
object triplex_meter {
	name trip_node_meter_399;
	phases AS;
	nominal_voltage 120.0;
};
object triplex_meter {
	name trip_node_meter_400;
	phases AS;
	nominal_voltage 120.0;
};
object triplex_meter {
	name trip_node_meter_401;
	phases BS;
	nominal_voltage 120.0;
};
object triplex_meter {
	name trip_node_meter_402;
	phases BS;
	nominal_voltage 120.0;
};
object triplex_meter {
	name trip_node_meter_403;
	phases BS;
	nominal_voltage 120.0;
};
object triplex_meter {
	name trip_node_meter_404;
	phases BS;
	nominal_voltage 120.0;
};
object triplex_meter {
	name trip_node_meter_405;
	phases BS;
	nominal_voltage 120.0;
};
object triplex_meter {
	name trip_node_meter_406;
	phases BS;
	nominal_voltage 120.0;
};
object triplex_meter {
	name trip_node_meter_407;
	phases BS;
	nominal_voltage 120.0;
};
object triplex_meter {
	name trip_node_meter_408;
	phases BS;
	nominal_voltage 120.0;
};
object triplex_meter {
	name trip_node_meter_409;
	phases BS;
	nominal_voltage 120.0;
};
object triplex_meter {
	name trip_node_meter_410;
	phases BS;
	nominal_voltage 120.0;
};
object triplex_meter {
	name trip_node_meter_411;
	phases BS;
	nominal_voltage 120.0;
};
object triplex_meter {
	name trip_node_meter_412;
	phases BS;
	nominal_voltage 120.0;
};
object triplex_meter {
	name trip_node_meter_413;
	phases BS;
	nominal_voltage 120.0;
};
object triplex_meter {
	name trip_node_meter_414;
	phases BS;
	nominal_voltage 120.0;
};
object triplex_meter {
	name trip_node_meter_415;
	phases BS;
	nominal_voltage 120.0;
};
object triplex_meter {
	name trip_node_meter_416;
	phases BS;
	nominal_voltage 120.0;
};
object triplex_meter {
	name trip_node_meter_417;
	phases BS;
	nominal_voltage 120.0;
};
object triplex_meter {
	name trip_node_meter_418;
	phases BS;
	nominal_voltage 120.0;
};
object triplex_meter {
	name trip_node_meter_419;
	phases BS;
	nominal_voltage 120.0;
};
object triplex_meter {
	name trip_node_meter_420;
	phases BS;
	nominal_voltage 120.0;
};
object triplex_meter {
	name trip_node_meter_421;
	phases BS;
	nominal_voltage 120.0;
};
object triplex_meter {
	name trip_node_meter_422;
	phases BS;
	nominal_voltage 120.0;
};
object triplex_meter {
	name trip_node_meter_423;
	phases BS;
	nominal_voltage 120.0;
};
object triplex_meter {
	name trip_node_meter_424;
	phases BS;
	nominal_voltage 120.0;
};
object triplex_meter {
	name trip_node_meter_425;
	phases BS;
	nominal_voltage 120.0;
};
object triplex_meter {
	name trip_node_meter_426;
	phases BS;
	nominal_voltage 120.0;
};
object triplex_meter {
	name trip_node_meter_427;
	phases BS;
	nominal_voltage 120.0;
};
object triplex_meter {
	name trip_node_meter_428;
	phases BS;
	nominal_voltage 120.0;
};
object triplex_meter {
	name trip_node_meter_429;
	phases BS;
	nominal_voltage 120.0;
};
object triplex_meter {
	name trip_node_meter_430;
	phases BS;
	nominal_voltage 120.0;
};
object triplex_meter {
	name trip_node_meter_431;
	phases BS;
	nominal_voltage 120.0;
};
object triplex_meter {
	name trip_node_meter_432;
	phases BS;
	nominal_voltage 120.0;
};
object triplex_meter {
	name trip_node_meter_433;
	phases BS;
	nominal_voltage 120.0;
};
object triplex_meter {
	name trip_node_meter_434;
	phases BS;
	nominal_voltage 120.0;
};
object triplex_meter {
	name trip_node_meter_435;
	phases BS;
	nominal_voltage 120.0;
};
object triplex_meter {
	name trip_node_meter_436;
	phases BS;
	nominal_voltage 120.0;
};
object triplex_meter {
	name trip_node_meter_437;
	phases BS;
	nominal_voltage 120.0;
};
object triplex_meter {
	name trip_node_meter_438;
	phases BS;
	nominal_voltage 120.0;
};
object triplex_meter {
	name trip_node_meter_439;
	phases BS;
	nominal_voltage 120.0;
};
object triplex_meter {
	name trip_node_meter_440;
	phases BS;
	nominal_voltage 120.0;
};
object triplex_meter {
	name trip_node_meter_441;
	phases CS;
	nominal_voltage 120.0;
};
object triplex_meter {
	name trip_node_meter_442;
	phases CS;
	nominal_voltage 120.0;
};
object triplex_meter {
	name trip_node_meter_443;
	phases CS;
	nominal_voltage 120.0;
};
object triplex_meter {
	name trip_node_meter_444;
	phases CS;
	nominal_voltage 120.0;
};
object triplex_meter {
	name trip_node_meter_445;
	phases CS;
	nominal_voltage 120.0;
};
object triplex_meter {
	name trip_node_meter_446;
	phases CS;
	nominal_voltage 120.0;
};
object triplex_meter {
	name trip_node_meter_447;
	phases CS;
	nominal_voltage 120.0;
};
object triplex_meter {
	name trip_node_meter_448;
	phases CS;
	nominal_voltage 120.0;
};
object triplex_meter {
	name trip_node_meter_449;
	phases CS;
	nominal_voltage 120.0;
};
object triplex_meter {
	name trip_node_meter_450;
	phases CS;
	nominal_voltage 120.0;
};
object triplex_meter {
	name trip_node_meter_451;
	phases CS;
	nominal_voltage 120.0;
};
object triplex_meter {
	name trip_node_meter_452;
	phases CS;
	nominal_voltage 120.0;
};
object triplex_meter {
	name trip_node_meter_453;
	phases CS;
	nominal_voltage 120.0;
};
object triplex_meter {
	name trip_node_meter_454;
	phases CS;
	nominal_voltage 120.0;
};
object triplex_meter {
	name trip_node_meter_455;
	phases CS;
	nominal_voltage 120.0;
};
object triplex_meter {
	name trip_node_meter_456;
	phases CS;
	nominal_voltage 120.0;
};
object triplex_meter {
	name trip_node_meter_457;
	phases CS;
	nominal_voltage 120.0;
};
object triplex_meter {
	name trip_node_meter_458;
	phases CS;
	nominal_voltage 120.0;
};
object triplex_meter {
	name trip_node_meter_459;
	phases CS;
	nominal_voltage 120.0;
};
object triplex_meter {
	name trip_node_meter_460;
	phases CS;
	nominal_voltage 120.0;
};
object triplex_meter {
	name trip_node_meter_461;
	phases CS;
	nominal_voltage 120.0;
};
object triplex_meter {
	name trip_node_meter_462;
	phases CS;
	nominal_voltage 120.0;
};
object triplex_meter {
	name trip_node_meter_463;
	phases CS;
	nominal_voltage 120.0;
};
object triplex_meter {
	name trip_node_meter_464;
	phases CS;
	nominal_voltage 120.0;
};
object triplex_meter {
	name trip_node_meter_465;
	phases CS;
	nominal_voltage 120.0;
};
object triplex_meter {
	name trip_node_meter_466;
	phases CS;
	nominal_voltage 120.0;
};
object triplex_meter {
	name trip_node_meter_467;
	phases CS;
	nominal_voltage 120.0;
};
object triplex_meter {
	name trip_node_meter_468;
	phases CS;
	nominal_voltage 120.0;
};
object triplex_meter {
	name trip_node_meter_469;
	phases CS;
	nominal_voltage 120.0;
};
object triplex_meter {
	name trip_node_meter_470;
	phases CS;
	nominal_voltage 120.0;
};
object triplex_meter {
	name trip_node_meter_471;
	phases CS;
	nominal_voltage 120.0;
};
object triplex_meter {
	name trip_node_meter_472;
	phases CS;
	nominal_voltage 120.0;
};
object triplex_meter {
	name trip_node_meter_473;
	phases CS;
	nominal_voltage 120.0;
};
object triplex_meter {
	name trip_node_meter_474;
	phases CS;
	nominal_voltage 120.0;
};
object triplex_meter {
	name trip_node_meter_475;
	phases CS;
	nominal_voltage 120.0;
};
object triplex_meter {
	name trip_node_meter_476;
	phases CS;
	nominal_voltage 120.0;
};
object triplex_meter {
	name trip_node_meter_477;
	phases CS;
	nominal_voltage 120.0;
};
object triplex_meter {
	name trip_node_meter_478;
	phases CS;
	nominal_voltage 120.0;
};
object triplex_meter {
	name trip_node_meter_479;
	phases CS;
	nominal_voltage 120.0;
};
object triplex_meter {
	name trip_node_meter_480;
	phases CS;
	nominal_voltage 120.0;
};
object triplex_meter {
	name trip_node_meter_481;
	phases AS;
	nominal_voltage 120.0;
};
object triplex_meter {
	name trip_node_meter_482;
	phases AS;
	nominal_voltage 120.0;
};
object triplex_meter {
	name trip_node_meter_483;
	phases AS;
	nominal_voltage 120.0;
};
object triplex_meter {
	name trip_node_meter_484;
	phases AS;
	nominal_voltage 120.0;
};
object triplex_meter {
	name trip_node_meter_485;
	phases AS;
	nominal_voltage 120.0;
};
object triplex_meter {
	name trip_node_meter_486;
	phases AS;
	nominal_voltage 120.0;
};
object triplex_meter {
	name trip_node_meter_487;
	phases AS;
	nominal_voltage 120.0;
};
object triplex_meter {
	name trip_node_meter_488;
	phases AS;
	nominal_voltage 120.0;
};
object triplex_meter {
	name trip_node_meter_489;
	phases AS;
	nominal_voltage 120.0;
};
object triplex_meter {
	name trip_node_meter_490;
	phases AS;
	nominal_voltage 120.0;
};
object triplex_meter {
	name trip_node_meter_491;
	phases AS;
	nominal_voltage 120.0;
};
object triplex_meter {
	name trip_node_meter_492;
	phases AS;
	nominal_voltage 120.0;
};
object triplex_meter {
	name trip_node_meter_493;
	phases AS;
	nominal_voltage 120.0;
};
object triplex_meter {
	name trip_node_meter_494;
	phases AS;
	nominal_voltage 120.0;
};
object triplex_meter {
	name trip_node_meter_495;
	phases AS;
	nominal_voltage 120.0;
};
object triplex_meter {
	name trip_node_meter_496;
	phases AS;
	nominal_voltage 120.0;
};
object triplex_meter {
	name trip_node_meter_497;
	phases AS;
	nominal_voltage 120.0;
};
object triplex_meter {
	name trip_node_meter_498;
	phases AS;
	nominal_voltage 120.0;
};
object triplex_meter {
	name trip_node_meter_499;
	phases AS;
	nominal_voltage 120.0;
};
object triplex_meter {
	name trip_node_meter_500;
	phases AS;
	nominal_voltage 120.0;
};
object triplex_meter {
	name trip_node_meter_501;
	phases AS;
	nominal_voltage 120.0;
};
object triplex_meter {
	name trip_node_meter_502;
	phases AS;
	nominal_voltage 120.0;
};
object triplex_meter {
	name trip_node_meter_503;
	phases AS;
	nominal_voltage 120.0;
};
object triplex_meter {
	name trip_node_meter_504;
	phases AS;
	nominal_voltage 120.0;
};
object triplex_meter {
	name trip_node_meter_505;
	phases AS;
	nominal_voltage 120.0;
};
object triplex_meter {
	name trip_node_meter_506;
	phases AS;
	nominal_voltage 120.0;
};
object triplex_meter {
	name trip_node_meter_507;
	phases AS;
	nominal_voltage 120.0;
};
object triplex_meter {
	name trip_node_meter_508;
	phases AS;
	nominal_voltage 120.0;
};
object triplex_meter {
	name trip_node_meter_509;
	phases AS;
	nominal_voltage 120.0;
};
object triplex_meter {
	name trip_node_meter_510;
	phases AS;
	nominal_voltage 120.0;
};
object triplex_meter {
	name trip_node_meter_511;
	phases AS;
	nominal_voltage 120.0;
};
object triplex_meter {
	name trip_node_meter_512;
	phases AS;
	nominal_voltage 120.0;
};
object triplex_meter {
	name trip_node_meter_513;
	phases AS;
	nominal_voltage 120.0;
};
object triplex_meter {
	name trip_node_meter_514;
	phases AS;
	nominal_voltage 120.0;
};
object triplex_meter {
	name trip_node_meter_515;
	phases AS;
	nominal_voltage 120.0;
};
object triplex_meter {
	name trip_node_meter_516;
	phases AS;
	nominal_voltage 120.0;
};
object triplex_meter {
	name trip_node_meter_517;
	phases AS;
	nominal_voltage 120.0;
};
object triplex_meter {
	name trip_node_meter_518;
	phases AS;
	nominal_voltage 120.0;
};
object triplex_meter {
	name trip_node_meter_519;
	phases AS;
	nominal_voltage 120.0;
};
object triplex_meter {
	name trip_node_meter_520;
	phases AS;
	nominal_voltage 120.0;
};
object triplex_meter {
	name trip_node_meter_521;
	phases BS;
	nominal_voltage 120.0;
};
object triplex_meter {
	name trip_node_meter_522;
	phases BS;
	nominal_voltage 120.0;
};
object triplex_meter {
	name trip_node_meter_523;
	phases BS;
	nominal_voltage 120.0;
};
object triplex_meter {
	name trip_node_meter_524;
	phases BS;
	nominal_voltage 120.0;
};
object triplex_meter {
	name trip_node_meter_525;
	phases BS;
	nominal_voltage 120.0;
};
object triplex_meter {
	name trip_node_meter_526;
	phases BS;
	nominal_voltage 120.0;
};
object triplex_meter {
	name trip_node_meter_527;
	phases BS;
	nominal_voltage 120.0;
};
object triplex_meter {
	name trip_node_meter_528;
	phases BS;
	nominal_voltage 120.0;
};
object triplex_meter {
	name trip_node_meter_529;
	phases BS;
	nominal_voltage 120.0;
};
object triplex_meter {
	name trip_node_meter_530;
	phases BS;
	nominal_voltage 120.0;
};
object triplex_meter {
	name trip_node_meter_531;
	phases BS;
	nominal_voltage 120.0;
};
object triplex_meter {
	name trip_node_meter_532;
	phases BS;
	nominal_voltage 120.0;
};
object triplex_meter {
	name trip_node_meter_533;
	phases BS;
	nominal_voltage 120.0;
};
object triplex_meter {
	name trip_node_meter_534;
	phases BS;
	nominal_voltage 120.0;
};
object triplex_meter {
	name trip_node_meter_535;
	phases BS;
	nominal_voltage 120.0;
};
object triplex_meter {
	name trip_node_meter_536;
	phases BS;
	nominal_voltage 120.0;
};
object triplex_meter {
	name trip_node_meter_537;
	phases BS;
	nominal_voltage 120.0;
};
object triplex_meter {
	name trip_node_meter_538;
	phases BS;
	nominal_voltage 120.0;
};
object triplex_meter {
	name trip_node_meter_539;
	phases BS;
	nominal_voltage 120.0;
};
object triplex_meter {
	name trip_node_meter_540;
	phases BS;
	nominal_voltage 120.0;
};
object triplex_meter {
	name trip_node_meter_541;
	phases BS;
	nominal_voltage 120.0;
};
object triplex_meter {
	name trip_node_meter_542;
	phases BS;
	nominal_voltage 120.0;
};
object triplex_meter {
	name trip_node_meter_543;
	phases BS;
	nominal_voltage 120.0;
};
object triplex_meter {
	name trip_node_meter_544;
	phases BS;
	nominal_voltage 120.0;
};
object triplex_meter {
	name trip_node_meter_545;
	phases BS;
	nominal_voltage 120.0;
};
object triplex_meter {
	name trip_node_meter_546;
	phases BS;
	nominal_voltage 120.0;
};
object triplex_meter {
	name trip_node_meter_547;
	phases BS;
	nominal_voltage 120.0;
};
object triplex_meter {
	name trip_node_meter_548;
	phases BS;
	nominal_voltage 120.0;
};
object triplex_meter {
	name trip_node_meter_549;
	phases BS;
	nominal_voltage 120.0;
};
object triplex_meter {
	name trip_node_meter_550;
	phases BS;
	nominal_voltage 120.0;
};
object triplex_meter {
	name trip_node_meter_551;
	phases BS;
	nominal_voltage 120.0;
};
object triplex_meter {
	name trip_node_meter_552;
	phases BS;
	nominal_voltage 120.0;
};
object triplex_meter {
	name trip_node_meter_553;
	phases BS;
	nominal_voltage 120.0;
};
object triplex_meter {
	name trip_node_meter_554;
	phases BS;
	nominal_voltage 120.0;
};
object triplex_meter {
	name trip_node_meter_555;
	phases BS;
	nominal_voltage 120.0;
};
object triplex_meter {
	name trip_node_meter_556;
	phases BS;
	nominal_voltage 120.0;
};
object triplex_meter {
	name trip_node_meter_557;
	phases BS;
	nominal_voltage 120.0;
};
object triplex_meter {
	name trip_node_meter_558;
	phases BS;
	nominal_voltage 120.0;
};
object triplex_meter {
	name trip_node_meter_559;
	phases BS;
	nominal_voltage 120.0;
};
object triplex_meter {
	name trip_node_meter_560;
	phases BS;
	nominal_voltage 120.0;
};
object triplex_meter {
	name trip_node_meter_561;
	phases CS;
	nominal_voltage 120.0;
};
object triplex_meter {
	name trip_node_meter_562;
	phases CS;
	nominal_voltage 120.0;
};
object triplex_meter {
	name trip_node_meter_563;
	phases CS;
	nominal_voltage 120.0;
};
object triplex_meter {
	name trip_node_meter_564;
	phases CS;
	nominal_voltage 120.0;
};
object triplex_meter {
	name trip_node_meter_565;
	phases CS;
	nominal_voltage 120.0;
};
object triplex_meter {
	name trip_node_meter_566;
	phases CS;
	nominal_voltage 120.0;
};
object triplex_meter {
	name trip_node_meter_567;
	phases CS;
	nominal_voltage 120.0;
};
object triplex_meter {
	name trip_node_meter_568;
	phases CS;
	nominal_voltage 120.0;
};
object triplex_meter {
	name trip_node_meter_569;
	phases CS;
	nominal_voltage 120.0;
};
object triplex_meter {
	name trip_node_meter_570;
	phases CS;
	nominal_voltage 120.0;
};
object triplex_meter {
	name trip_node_meter_571;
	phases CS;
	nominal_voltage 120.0;
};
object triplex_meter {
	name trip_node_meter_572;
	phases CS;
	nominal_voltage 120.0;
};
object triplex_meter {
	name trip_node_meter_573;
	phases CS;
	nominal_voltage 120.0;
};
object triplex_meter {
	name trip_node_meter_574;
	phases CS;
	nominal_voltage 120.0;
};
object triplex_meter {
	name trip_node_meter_575;
	phases CS;
	nominal_voltage 120.0;
};
object triplex_meter {
	name trip_node_meter_576;
	phases CS;
	nominal_voltage 120.0;
};
object triplex_meter {
	name trip_node_meter_577;
	phases CS;
	nominal_voltage 120.0;
};
object triplex_meter {
	name trip_node_meter_578;
	phases CS;
	nominal_voltage 120.0;
};
object triplex_meter {
	name trip_node_meter_579;
	phases CS;
	nominal_voltage 120.0;
};
object triplex_meter {
	name trip_node_meter_580;
	phases CS;
	nominal_voltage 120.0;
};
object triplex_meter {
	name trip_node_meter_581;
	phases CS;
	nominal_voltage 120.0;
};
object triplex_meter {
	name trip_node_meter_582;
	phases CS;
	nominal_voltage 120.0;
};
object triplex_meter {
	name trip_node_meter_583;
	phases CS;
	nominal_voltage 120.0;
};
object triplex_meter {
	name trip_node_meter_584;
	phases CS;
	nominal_voltage 120.0;
};
object triplex_meter {
	name trip_node_meter_585;
	phases CS;
	nominal_voltage 120.0;
};
object triplex_meter {
	name trip_node_meter_586;
	phases CS;
	nominal_voltage 120.0;
};
object triplex_meter {
	name trip_node_meter_587;
	phases CS;
	nominal_voltage 120.0;
};
object triplex_meter {
	name trip_node_meter_588;
	phases CS;
	nominal_voltage 120.0;
};
object triplex_meter {
	name trip_node_meter_589;
	phases CS;
	nominal_voltage 120.0;
};
object triplex_meter {
	name trip_node_meter_590;
	phases CS;
	nominal_voltage 120.0;
};
object triplex_meter {
	name trip_node_meter_591;
	phases CS;
	nominal_voltage 120.0;
};
object triplex_meter {
	name trip_node_meter_592;
	phases CS;
	nominal_voltage 120.0;
};
object triplex_meter {
	name trip_node_meter_593;
	phases CS;
	nominal_voltage 120.0;
};
object triplex_meter {
	name trip_node_meter_594;
	phases CS;
	nominal_voltage 120.0;
};
object triplex_meter {
	name trip_node_meter_595;
	phases CS;
	nominal_voltage 120.0;
};
object triplex_meter {
	name trip_node_meter_596;
	phases CS;
	nominal_voltage 120.0;
};
object triplex_meter {
	name trip_node_meter_597;
	phases CS;
	nominal_voltage 120.0;
};
object triplex_meter {
	name trip_node_meter_598;
	phases CS;
	nominal_voltage 120.0;
};
object triplex_meter {
	name trip_node_meter_599;
	phases CS;
	nominal_voltage 120.0;
};
object triplex_meter {
	name trip_node_meter_600;
	phases CS;
	nominal_voltage 120.0;
};
object triplex_meter {
	name trip_node_meter_601;
	phases AS;
	nominal_voltage 120.0;
};
object triplex_meter {
	name trip_node_meter_602;
	phases AS;
	nominal_voltage 120.0;
};
object triplex_meter {
	name trip_node_meter_603;
	phases AS;
	nominal_voltage 120.0;
};
object triplex_meter {
	name trip_node_meter_604;
	phases AS;
	nominal_voltage 120.0;
};
object triplex_meter {
	name trip_node_meter_605;
	phases AS;
	nominal_voltage 120.0;
};
object triplex_meter {
	name trip_node_meter_606;
	phases AS;
	nominal_voltage 120.0;
};
object triplex_meter {
	name trip_node_meter_607;
	phases AS;
	nominal_voltage 120.0;
};
object triplex_meter {
	name trip_node_meter_608;
	phases AS;
	nominal_voltage 120.0;
};
object triplex_meter {
	name trip_node_meter_609;
	phases AS;
	nominal_voltage 120.0;
};
object triplex_meter {
	name trip_node_meter_610;
	phases AS;
	nominal_voltage 120.0;
};
object triplex_meter {
	name trip_node_meter_611;
	phases AS;
	nominal_voltage 120.0;
};
object triplex_meter {
	name trip_node_meter_612;
	phases AS;
	nominal_voltage 120.0;
};
object triplex_meter {
	name trip_node_meter_613;
	phases AS;
	nominal_voltage 120.0;
};
object triplex_meter {
	name trip_node_meter_614;
	phases AS;
	nominal_voltage 120.0;
};
object triplex_meter {
	name trip_node_meter_615;
	phases AS;
	nominal_voltage 120.0;
};
object triplex_meter {
	name trip_node_meter_616;
	phases AS;
	nominal_voltage 120.0;
};
object triplex_meter {
	name trip_node_meter_617;
	phases AS;
	nominal_voltage 120.0;
};
object triplex_meter {
	name trip_node_meter_618;
	phases AS;
	nominal_voltage 120.0;
};
object triplex_meter {
	name trip_node_meter_619;
	phases AS;
	nominal_voltage 120.0;
};
object triplex_meter {
	name trip_node_meter_620;
	phases AS;
	nominal_voltage 120.0;
};
object triplex_meter {
	name trip_node_meter_621;
	phases AS;
	nominal_voltage 120.0;
};
object triplex_meter {
	name trip_node_meter_622;
	phases AS;
	nominal_voltage 120.0;
};
object triplex_meter {
	name trip_node_meter_623;
	phases AS;
	nominal_voltage 120.0;
};
object triplex_meter {
	name trip_node_meter_624;
	phases AS;
	nominal_voltage 120.0;
};
object triplex_meter {
	name trip_node_meter_625;
	phases AS;
	nominal_voltage 120.0;
};
object triplex_meter {
	name trip_node_meter_626;
	phases AS;
	nominal_voltage 120.0;
};
object triplex_meter {
	name trip_node_meter_627;
	phases AS;
	nominal_voltage 120.0;
};
object triplex_meter {
	name trip_node_meter_628;
	phases AS;
	nominal_voltage 120.0;
};
object triplex_meter {
	name trip_node_meter_629;
	phases AS;
	nominal_voltage 120.0;
};
object triplex_meter {
	name trip_node_meter_630;
	phases AS;
	nominal_voltage 120.0;
};
object triplex_meter {
	name trip_node_meter_631;
	phases AS;
	nominal_voltage 120.0;
};
object triplex_meter {
	name trip_node_meter_632;
	phases AS;
	nominal_voltage 120.0;
};
object triplex_meter {
	name trip_node_meter_633;
	phases AS;
	nominal_voltage 120.0;
};
object triplex_meter {
	name trip_node_meter_634;
	phases AS;
	nominal_voltage 120.0;
};
object triplex_meter {
	name trip_node_meter_635;
	phases AS;
	nominal_voltage 120.0;
};
object triplex_meter {
	name trip_node_meter_636;
	phases AS;
	nominal_voltage 120.0;
};
object triplex_meter {
	name trip_node_meter_637;
	phases AS;
	nominal_voltage 120.0;
};
object triplex_meter {
	name trip_node_meter_638;
	phases AS;
	nominal_voltage 120.0;
};
object triplex_meter {
	name trip_node_meter_639;
	phases AS;
	nominal_voltage 120.0;
};
object triplex_meter {
	name trip_node_meter_640;
	phases AS;
	nominal_voltage 120.0;
};
object triplex_meter {
	name trip_node_meter_641;
	phases BS;
	nominal_voltage 120.0;
};
object triplex_meter {
	name trip_node_meter_642;
	phases BS;
	nominal_voltage 120.0;
};
object triplex_meter {
	name trip_node_meter_643;
	phases BS;
	nominal_voltage 120.0;
};
object triplex_meter {
	name trip_node_meter_644;
	phases BS;
	nominal_voltage 120.0;
};
object triplex_meter {
	name trip_node_meter_645;
	phases BS;
	nominal_voltage 120.0;
};
object triplex_meter {
	name trip_node_meter_646;
	phases BS;
	nominal_voltage 120.0;
};
object triplex_meter {
	name trip_node_meter_647;
	phases BS;
	nominal_voltage 120.0;
};
object triplex_meter {
	name trip_node_meter_648;
	phases BS;
	nominal_voltage 120.0;
};
object triplex_meter {
	name trip_node_meter_649;
	phases BS;
	nominal_voltage 120.0;
};
object triplex_meter {
	name trip_node_meter_650;
	phases BS;
	nominal_voltage 120.0;
};
object triplex_meter {
	name trip_node_meter_651;
	phases BS;
	nominal_voltage 120.0;
};
object triplex_meter {
	name trip_node_meter_652;
	phases BS;
	nominal_voltage 120.0;
};
object triplex_meter {
	name trip_node_meter_653;
	phases BS;
	nominal_voltage 120.0;
};
object triplex_meter {
	name trip_node_meter_654;
	phases BS;
	nominal_voltage 120.0;
};
object triplex_meter {
	name trip_node_meter_655;
	phases BS;
	nominal_voltage 120.0;
};
object triplex_meter {
	name trip_node_meter_656;
	phases BS;
	nominal_voltage 120.0;
};
object triplex_meter {
	name trip_node_meter_657;
	phases BS;
	nominal_voltage 120.0;
};
object triplex_meter {
	name trip_node_meter_658;
	phases BS;
	nominal_voltage 120.0;
};
object triplex_meter {
	name trip_node_meter_659;
	phases BS;
	nominal_voltage 120.0;
};
object triplex_meter {
	name trip_node_meter_660;
	phases BS;
	nominal_voltage 120.0;
};
object triplex_meter {
	name trip_node_meter_661;
	phases BS;
	nominal_voltage 120.0;
};
object triplex_meter {
	name trip_node_meter_662;
	phases BS;
	nominal_voltage 120.0;
};
object triplex_meter {
	name trip_node_meter_663;
	phases BS;
	nominal_voltage 120.0;
};
object triplex_meter {
	name trip_node_meter_664;
	phases BS;
	nominal_voltage 120.0;
};
object triplex_meter {
	name trip_node_meter_665;
	phases BS;
	nominal_voltage 120.0;
};
object triplex_meter {
	name trip_node_meter_666;
	phases BS;
	nominal_voltage 120.0;
};
object triplex_meter {
	name trip_node_meter_667;
	phases BS;
	nominal_voltage 120.0;
};
object triplex_meter {
	name trip_node_meter_668;
	phases BS;
	nominal_voltage 120.0;
};
object triplex_meter {
	name trip_node_meter_669;
	phases BS;
	nominal_voltage 120.0;
};
object triplex_meter {
	name trip_node_meter_670;
	phases BS;
	nominal_voltage 120.0;
};
object triplex_meter {
	name trip_node_meter_671;
	phases BS;
	nominal_voltage 120.0;
};
object triplex_meter {
	name trip_node_meter_672;
	phases BS;
	nominal_voltage 120.0;
};
object triplex_meter {
	name trip_node_meter_673;
	phases BS;
	nominal_voltage 120.0;
};
object triplex_meter {
	name trip_node_meter_674;
	phases BS;
	nominal_voltage 120.0;
};
object triplex_meter {
...